
**** 07/10/19 11:55:39 ***** PSpice 16.6.0 (October 2012) ***** ID# 0 ********

 ** Profile: "SCHEMATIC1-Sim1"  [ Q:\research\EMI Sensor\Building sensor\Code\Bandpass_design-PSpiceFiles\SCHEMATIC1\Sim1.sim ] 


 ****     CIRCUIT DESCRIPTION


******************************************************************************




** Creating circuit file "Sim1.cir" 
** WARNING: THIS AUTOMATICALLY GENERATED FILE MAY BE OVERWRITTEN BY SUBSEQUENT SIMULATIONS

*Libraries: 
* Profile Libraries :
* Local Libraries :
* From [PSPICE NETLIST] section of C:\Users\jsmith95\cdssetup\OrCAD_PSpice/16.6.0/PSpice.ini file:
.lib "nom.lib" 

*Analysis directives: 
.AC DEC 10 1 1000k
.OPTIONS ADVCONV
.PROBE64 V(alias(*)) I(alias(*)) W(alias(*)) D(alias(*)) NOISE(alias(*)) 
.INC "..\SCHEMATIC1.net" 



**** INCLUDING SCHEMATIC1.net ****
* source BANDPASS_DESIGN
E_U1         N00292 0 VALUE {LIMIT(V(N00267,N00342)*1E6,-15V,+15V)}
R_R1         N00275 N00271  7.96k TC=0,0 
R_R2         N00271 N00292  2.65k TC=0,0 
R_R3         0 N00267  15.92k TC=0,0 
R_R4         N00292 N00342  50k TC=0,0 
R_R5         N00342 0  11.2k TC=0,0 
C_C1         N00271 N00267  20n  TC=0,0 
C_C2         0 N00267  10n  TC=0,0 
V_V1         N00275 0 DC 0Vdc AC 5Vac 

**** RESUMING Sim1.cir ****
.END

**** 07/10/19 11:55:39 ***** PSpice 16.6.0 (October 2012) ***** ID# 0 ********

 ** Profile: "SCHEMATIC1-Sim1"  [ Q:\research\EMI Sensor\Building sensor\Code\Bandpass_design-PSpiceFiles\SCHEMATIC1\Sim1.sim ] 


 ****     SMALL SIGNAL BIAS SOLUTION       TEMPERATURE =   27.000 DEG C


******************************************************************************



 NODE   VOLTAGE     NODE   VOLTAGE     NODE   VOLTAGE     NODE   VOLTAGE


(N00267)    0.0000 (N00271)    0.0000 (N00275)    0.0000 (N00292)    0.0000     

(N00342)    0.0000 




    VOLTAGE SOURCE CURRENTS
    NAME         CURRENT

    V_V1         0.000E+00

    TOTAL POWER DISSIPATION   0.00E+00  WATTS



          JOB CONCLUDED

**** 07/10/19 11:55:39 ***** PSpice 16.6.0 (October 2012) ***** ID# 0 ********

 ** Profile: "SCHEMATIC1-Sim1"  [ Q:\research\EMI Sensor\Building sensor\Code\Bandpass_design-PSpiceFiles\SCHEMATIC1\Sim1.sim ] 


 ****     JOB STATISTICS SUMMARY


******************************************************************************



  Total job time (using Solver 1)   =         .05
