
**** 08/06/19 14:23:12 ******* PSpice Lite (March 2016) ******* ID# 10813 ****

 ** Profile: "SCHEMATIC1-Sim2"  [ C:\Users\97jsm\Documents\GitHub\EMI-sensor\Building sensor\Code\Bandpass_design-PSpiceFiles\SCHEMAT


 ****     CIRCUIT DESCRIPTION


******************************************************************************




** Creating circuit file "Sim2.cir" 
** WARNING: THIS AUTOMATICALLY GENERATED FILE MAY BE OVERWRITTEN BY SUBSEQUENT SIMULATIONS

*Libraries: 
* Profile Libraries :
* Local Libraries :
* From [PSPICE NETLIST] section of C:\SPB_Data\cdssetup\OrCAD_PSpice\17.2.0\PSpice.ini file:
.lib "nomd.lib" 

*Analysis directives: 
.AC DEC 10 1 1000K
.OPTIONS ADVCONV
.PROBE64 V(alias(*)) I(alias(*)) W(alias(*)) D(alias(*)) NOISE(alias(*)) 
.INC "..\SCHEMATIC1.net" 



**** INCLUDING SCHEMATIC1.net ****
* source BANDPASS_DESIGN
E_U1         N00292 0 VALUE {LIMIT(V(N00267,N00342)*1E6,-15V,+15V)}
R_R1         N00275 N00271  159.15 TC=0,0 
R_R2         N00271 N00292  53.05 TC=0,0 
R_R3         0 N00267  318.3 TC=0,0 
R_R4         N00292 N00342  50k TC=0,0 
R_R5         N00342 0  11.2k TC=0,0 
C_C1         N00271 N00267  1u  TC=0,0 
C_C2         0 N00267  500n  TC=0,0 
V_V1         N00275 0 DC 0Vdc AC 5Vac 

**** RESUMING Sim2.cir ****
.END

INFO(ORPSIM-16573): AC analysis does not support expression evaluation at each frequency. ABM devices with non-linear operations will be evaluated only at bias point.

**** 08/06/19 14:23:12 ******* PSpice Lite (March 2016) ******* ID# 10813 ****

 ** Profile: "SCHEMATIC1-Sim2"  [ C:\Users\97jsm\Documents\GitHub\EMI-sensor\Building sensor\Code\Bandpass_design-PSpiceFiles\SCHEMAT


 ****     SMALL SIGNAL BIAS SOLUTION       TEMPERATURE =   27.000 DEG C


******************************************************************************



 NODE   VOLTAGE     NODE   VOLTAGE     NODE   VOLTAGE     NODE   VOLTAGE


(N00267)    0.0000 (N00271)    0.0000 (N00275)    0.0000 (N00292)    0.0000     

(N00342)    0.0000 




    VOLTAGE SOURCE CURRENTS
    NAME         CURRENT

    V_V1         0.000E+00

    TOTAL POWER DISSIPATION   0.00E+00  WATTS



          JOB CONCLUDED

**** 08/06/19 14:23:12 ******* PSpice Lite (March 2016) ******* ID# 10813 ****

 ** Profile: "SCHEMATIC1-Sim2"  [ C:\Users\97jsm\Documents\GitHub\EMI-sensor\Building sensor\Code\Bandpass_design-PSpiceFiles\SCHEMAT


 ****     JOB STATISTICS SUMMARY


******************************************************************************



  Total job time (using Solver 1)   =         .30
